test- git
....
.....
....
....
.....
....
new line....
----------------
line added by Nu-Ha
---------

line added by Vishnuhasan
