test- git
....
.....
....
....
.....
....
new line....

adding some line in already forked repo which changed for many features.
