test- git
....
.....
....
....
.....
....
new line....
----------------
line added by Nu-Ha
